test/testcases/print_test.m

function mpc = test_case
mpc.version = '2';
mpc.baseMVA = 100.0;

%% bus data
%	bus_i	type	Pd	Qd	Gs	Bs	area	Vm	Va	baseKV	zone	Vmax	Vmin
mpc.bus = [
	1	 3	 110.0	 40.0	 0.0	 0.0	 1	    1.00000	    0.00000	 240.0	 1	    1.10000	    0.90000;
	2	 1	 110.0	 40.0	 0.0	 0.0	 1	    1.00000	    0.00000	 240.0	 1	    1.10000	    0.90000;
];

%% generator data
%	bus	Pg	Qg	Qmax	Qmin	Vg	mBase	status	Pmax	Pmin
mpc.gen = [
	1	 1000.0	 0.0	 1000.0	 -1000.0	 1.0	 100.0	 1	 2000.0	 0.0;
];

%% generator cost data
%	2	startup	shutdown	n	c(n-1)	...	c0
mpc.gencost = [
	2	 0.0	 0.0	 3	   0.110000	   5.000000	   0.000000;
];

%% branch data
%	fbus	tbus	r	x	b	rateA	rateB	rateC	ratio	angle	status	angmin	angmax
mpc.branch = [
	1	 2	 0.065	 0.62	 0.45	 9000.0	 9000.0	 9000.0	 0.0	 0.0	 1	 -30.0	 30.0;
];

